Circuit: * C:\Users\Utkarsh\Documents\IIT\assignments\vlsi analog lab\schematics\exp4\opamp_comparator.asc

WARNING: Node N003 is floating.
WARNING: Node N002 is floating.
WARNING: Node N001 is floating.
WARNING: Node N012 is floating.
WARNING: Node N007 is floating.
WARNING: Node N010 is floating.
WARNING: Node N011 is floating.
WARNING: Node N006 is floating.

Instance "m8": Length shorter than recommended for a level 1 MOSFET.
Instance "m8": Width narrower than recommended for a level 1 MOSFET.
Instance "m7": Length shorter than recommended for a level 1 MOSFET.
Instance "m7": Width narrower than recommended for a level 1 MOSFET.
Instance "m6": Length shorter than recommended for a level 1 MOSFET.
Instance "m6": Width narrower than recommended for a level 1 MOSFET.
Instance "m5": Length shorter than recommended for a level 1 MOSFET.
Instance "m5": Width narrower than recommended for a level 1 MOSFET.
Instance "m4": Length shorter than recommended for a level 1 MOSFET.
Instance "m4": Width narrower than recommended for a level 1 MOSFET.
Instance "m3": Length shorter than recommended for a level 1 MOSFET.
Instance "m3": Width narrower than recommended for a level 1 MOSFET.
Instance "m2": Length shorter than recommended for a level 1 MOSFET.
Instance "m2": Width narrower than recommended for a level 1 MOSFET.
Instance "m1": Length shorter than recommended for a level 1 MOSFET.
Instance "m1": Width narrower than recommended for a level 1 MOSFET.
Direct Newton iteration for .op point succeeded.
Heightened Def Con from 0.0001 +to 0.0001
Heightened Def Con from 0.0001 +to 0.0001
Heightened Def Con from 0.0001 +to 0.0001
Heightened Def Con from 0.0001 +to 0.0001
Heightened Def Con from 0.0002 to 0.0002
Heightened Def Con from 0.0002 to 0.0002
Heightened Def Con from 0.0002 to 0.0002
Heightened Def Con from 0.0003 ++to 0.0003

Date: Sat Feb 13 20:12:22 2021
Total elapsed time: 0.347 seconds.

tnom = 27
temp = 27
method = modified trap
totiter = 6204
traniter = 6154
tranpoints = 1710
accept = 1427
rejected = 297
matrix size = 19
fillins = 2
solver = Normal
Matrix Compiler1: 1.67 KB object code size  1.2/0.8/[0.4]
Matrix Compiler2: 1.98 KB object code size  0.5/0.8/[0.3]

