Circuit: * C:\Users\Utkarsh\Documents\IIT\assignments\vlsi analog lab\schematics\exp3\cs_amp_activeload.asc

WARNING: Node N002 is floating.
WARNING: Node N005 is floating.
WARNING: Node OUT is floating.

Instance "m2": Length shorter than recommended for a level 1 MOSFET.
Instance "m1": Length shorter than recommended for a level 1 MOSFET.
Instance "m1": Width narrower than recommended for a level 1 MOSFET.
Direct Newton iteration for .op point succeeded.

Date: Tue Feb 02 12:07:58 2021
Total elapsed time: 0.307 seconds.

tnom = 27
temp = 27
method = trap
totiter = 32
traniter = 0
tranpoints = 0
accept = 0
rejected = 0
matrix size = 10
fillins = 0
solver = Normal
Matrix Compiler1:      23 opcodes
Matrix Compiler2:      65 opcodes
